data_Li2O2
_cell_length_a                   3.156
_cell_length_b                   3.156
_cell_length_c                   7.690
_cell_angle_alpha                90.00
_cell_angle_beta                 90.00
_cell_angle_gamma                120.00
_symmetry_space_group_name_H-M   'P 63/m m c'
_symmetry_Int_Tables_number      194

loop_
_atom_site_label
_atom_site_type_symbol
_atom_site_fract_x
_atom_site_fract_y
_atom_site_fract_z
_atom_site_occupancy
Li1 Li 0.33333 0.66667 0.25000 1.0
Li2 Li 0.66667 0.33333 0.75000 1.0
O1  O  0.33333 0.66667 0.75000 1.0
O2  O  0.66667 0.33333 0.25000 1.0
